Circuit: * C:\Users\guill\OneDrive\ESISAR\PX222-EIS\LTspice\Ampli.asc

Warning: Multiple definitions of model "2scr375p" Type: BJT
Warning: Multiple definitions of model "bc857b" Type: BJT
Warning: Multiple definitions of model "bc847c" Type: BJT
Warning: Multiple definitions of model "bc847b" Type: BJT
Limiting rise time of source v1 to 0.01
Limiting fall time of source v1 to 0.01
Direct Newton iteration for .op point succeeded.

Date: Tue Apr 11 18:48:18 2023
Total elapsed time: 0.152 seconds.

tnom = 27
temp = 27
method = modified trap
totiter = 3327
traniter = 3302
tranpoints = 1405
accept = 1302
rejected = 103
matrix size = 11
fillins = 3
solver = Normal
Avg thread counts: 1.2/1.5/1.5/1.2
Matrix Compiler1: 646 bytes object code size  0.2/0.2/[0.2]
Matrix Compiler2: off  [0.2]/0.3/0.2

